Version 4
SHEET 1 2088 752
WIRE 16 -208 -96 -208
WIRE 32 -208 16 -208
WIRE 32 -192 32 -208
WIRE 336 -192 272 -192
WIRE 432 -192 336 -192
WIRE 160 -144 96 -144
WIRE 208 -144 160 -144
WIRE 304 -96 272 -96
WIRE -560 -64 -560 -112
WIRE -432 -64 -560 -64
WIRE 32 -64 32 -96
WIRE 160 -64 160 -144
WIRE 160 -64 32 -64
WIRE 32 -48 32 -64
WIRE -560 -32 -560 -64
WIRE 32 -32 32 -48
WIRE 432 -16 432 -192
WIRE 528 -16 432 -16
WIRE -432 0 -432 -64
WIRE 32 128 32 48
WIRE 32 128 16 128
WIRE 432 128 432 64
WIRE 432 128 416 128
WIRE -128 176 -208 176
WIRE 272 176 240 176
WIRE 240 192 240 176
WIRE 16 272 16 224
WIRE 16 352 16 272
WIRE 192 352 96 352
WIRE 416 352 416 224
WIRE 416 352 272 352
WIRE 192 384 192 352
WIRE 144 448 80 448
WIRE 80 560 80 448
WIRE 192 560 80 560
WIRE 192 608 192 560
WIRE 192 640 192 608
FLAG 240 272 0
FLAG -208 256 0
FLAG -96 -208 +vcc
FLAG 192 640 -vee
FLAG 528 -16 Vo
FLAG -432 0 0
FLAG -560 -192 +vcc
FLAG -560 48 -vee
FLAG 304 -96 +vcc
FLAG 528 64 0
DATAFLAG 16 272 ""
DATAFLAG 16 -208 ""
DATAFLAG 336 -192 ""
DATAFLAG 32 -48 ""
DATAFLAG 192 608 ""
SYMBOL npn -48 128 R0
SYMATTR InstName Q1
SYMATTR Value BC547C
SYMBOL npn 352 128 R0
SYMATTR InstName Q2
SYMATTR Value BC547C
SYMBOL pnp 96 -96 R180
SYMATTR InstName Q3
SYMATTR Value BC557C
SYMBOL pnp 208 -192 R0
SYMATTR InstName Q4
SYMATTR Value BC557C
SYMBOL njf 144 384 R0
SYMATTR InstName J1
SYMATTR Value MPF102
SYMBOL voltage -208 160 R0
WINDOW 3 24 152 Left 2
WINDOW 123 24 44 Left 2
WINDOW 39 0 0 Left 2
SYMATTR Value SINE(0 10m 10k)
SYMATTR Value2 AC 10m
SYMATTR InstName V1
SYMBOL voltage 240 176 R0
WINDOW 3 24 152 Left 2
WINDOW 123 24 44 Left 2
WINDOW 39 0 0 Left 2
SYMATTR Value SINE(0 -10m 10k)
SYMATTR Value2 AC -10m
SYMATTR InstName V4
SYMBOL res 368 160 R90
WINDOW 0 0 56 VBottom 2
WINDOW 3 32 56 VTop 2
SYMATTR InstName Rs2
SYMATTR Value 560
SYMBOL res -32 160 R90
WINDOW 0 0 56 VBottom 2
WINDOW 3 32 56 VTop 2
SYMATTR InstName Rs1
SYMATTR Value 560
SYMBOL res 176 464 R0
SYMATTR InstName Rj
SYMATTR Value 1
SYMBOL voltage -560 -208 R0
WINDOW 123 0 0 Left 2
WINDOW 39 0 0 Left 2
SYMATTR InstName V2
SYMATTR Value 15
SYMBOL voltage -560 -48 R0
SYMATTR InstName V3
SYMATTR Value 15
SYMBOL res 16 -48 R0
SYMATTR InstName R1
SYMATTR Value 1
SYMBOL res 416 -32 R0
SYMATTR InstName R2
SYMATTR Value 1
SYMBOL res 112 336 R90
WINDOW 0 0 56 VBottom 2
WINDOW 3 32 56 VTop 2
SYMATTR InstName R3
SYMATTR Value 10
SYMBOL res 288 336 R90
WINDOW 0 0 56 VBottom 2
WINDOW 3 32 56 VTop 2
SYMATTR InstName R4
SYMATTR Value 10
SYMBOL res 512 -32 R0
SYMATTR InstName R5
SYMATTR Value 10k
TEXT 584 464 Left 2 !.inc jFet.txt
TEXT 600 232 Left 2 !.tran 1m
