Version 4
SHEET 1 2088 680
WIRE 32 -208 -96 -208
WIRE 288 -208 32 -208
WIRE 752 -208 288 -208
WIRE 32 -192 32 -208
WIRE 352 -160 160 -160
WIRE 160 -144 160 -160
WIRE 160 -144 96 -144
WIRE 288 -112 288 -128
WIRE 432 -112 288 -112
WIRE 288 -96 288 -112
WIRE 752 -80 752 -208
WIRE 32 -64 32 -96
WIRE 160 -64 160 -144
WIRE 160 -64 32 -64
WIRE 432 -16 432 -112
WIRE 688 -16 688 -32
WIRE 688 -16 432 -16
WIRE 752 64 752 16
WIRE 848 64 752 64
WIRE 1760 80 1760 0
WIRE 1888 80 1760 80
WIRE 2032 80 2032 0
WIRE 2032 80 1888 80
WIRE 2048 80 2032 80
WIRE 752 96 752 64
WIRE 752 112 752 96
WIRE 32 128 32 -64
WIRE 32 128 16 128
WIRE 432 128 432 -16
WIRE 432 128 416 128
WIRE -48 176 -208 176
WIRE 416 224 416 208
WIRE 16 352 16 224
WIRE 192 352 16 352
WIRE 416 352 416 224
WIRE 416 352 192 352
WIRE 192 384 192 352
WIRE 144 448 80 448
WIRE 80 560 80 448
WIRE 192 560 192 480
WIRE 192 560 80 560
WIRE 192 640 192 560
FLAG 752 176 0
FLAG 1888 80 0
FLAG 1760 -80 VCC
FLAG 2032 -80 VEE
SYMBOL npn -48 128 R0
SYMATTR InstName Q1
SYMBOL npn 352 128 R0
SYMATTR InstName Q2
SYMBOL pnp 96 -96 R180
SYMATTR InstName Q3
SYMBOL pnp 352 -112 R180
SYMATTR InstName Q4
SYMBOL njf 144 384 R0
SYMATTR InstName J1
SYMBOL voltage -208 160 R0
SYMATTR InstName V1
SYMBOL npn 688 -80 R0
SYMATTR InstName Q5
SYMBOL res 736 80 R0
SYMATTR InstName R1
SYMBOL voltage 1760 -96 R0
SYMATTR InstName V2
SYMBOL voltage 2032 -96 R0
SYMATTR InstName V3
